psse/psse-converter/src/test/resources/SubstationWithThreeBusesAtTheSameNominalVoltageInTwoDifferentAreas.xiidm
<?xml version="1.0" encoding="UTF-8"?>
<iidm:network xmlns:iidm="http://www.powsybl.org/schema/iidm/1_17" xmlns:slt="http://www.powsybl.org/schema/iidm/ext/slack_terminal/1_5" id="SubstationWithThreeBusesAtTheSameNominalVoltageInTwoDifferentAreas" caseDate="2016-01-01T10:00:00.000+02:00" forecastDistance="0" sourceFormat="PSS/E" minimumValidationLevel="STEADY_STATE_HYPOTHESIS">
    <iidm:substation id="S1">
        <iidm:voltageLevel id="VL1" nominalV="138.0" topologyKind="BUS_BREAKER">
            <iidm:busBreakerTopology>
                <iidm:bus id="B1" name="BUS 1       " v="146.28" angle="0.0"/>
            </iidm:busBreakerTopology>
            <iidm:generator id="B1-G1 " energySource="OTHER" minP="-10000.0" maxP="10000.0" targetP="232.392" localTargetV="146.28" localTargetQ="-16.549" bus="B1" connectableBus="B1">
                <iidm:minMaxReactiveLimits minQ="0.0" maxQ="0.0"/>
            </iidm:generator>
        </iidm:voltageLevel>
    </iidm:substation>
    <iidm:substation id="S2-3-4-5">
        <iidm:voltageLevel id="VL2" nominalV="138.0" topologyKind="BUS_BREAKER">
            <iidm:busBreakerTopology>
                <iidm:bus id="B2" name="BUS 2       " v="144.20999999999998" angle="-4.9826"/>
            </iidm:busBreakerTopology>
        </iidm:voltageLevel>
        <iidm:voltageLevel id="VL3" nominalV="25.0" topologyKind="BUS_BREAKER">
            <iidm:busBreakerTopology>
                <iidm:bus id="B3" name="BUS 3       " v="25.25" angle="-12.725"/>
            </iidm:busBreakerTopology>
            <iidm:load id="B3-L1 " loadType="UNDEFINED" p0="94.2" q0="19.0" bus="B3" connectableBus="B3"/>
        </iidm:voltageLevel>
        <iidm:voltageLevel id="VL4-5" nominalV="25.0" topologyKind="BUS_BREAKER">
            <iidm:busBreakerTopology>
                <iidm:bus id="B4" name="BUS 4       " v="25.441750000000003" angle="-10.3128"/>
                <iidm:bus id="B5" name="BUS 5       " v="25.48775" angle="-8.7738"/>
            </iidm:busBreakerTopology>
            <iidm:generator id="B5-G1 " energySource="OTHER" minP="-10000.0" maxP="10000.0" targetP="32.3" localTargetV="26.5" localTargetQ="-6.0" bus="B5" connectableBus="B5">
                <iidm:minMaxReactiveLimits minQ="0.0" maxQ="0.0"/>
            </iidm:generator>
            <iidm:load id="B4-L1 " loadType="UNDEFINED" p0="47.8" q0="-3.9" bus="B4" connectableBus="B4"/>
        </iidm:voltageLevel>
        <iidm:twoWindingsTransformer id="T-2-3-1 " r="0.0" x="1.307" ratedU1="138.0" ratedU2="25.0" voltageLevelId1="VL2" bus1="B2" connectableBus1="B2" voltageLevelId2="VL3" bus2="B3" connectableBus2="B3">
            <iidm:ratioTapChanger tapPosition="0" loadTapChangingCapabilities="false">
                <iidm:step g="-4.3515999999999995" b="-4.3515999999999995" rho="1.0224948875255624"/>
            </iidm:ratioTapChanger>
        </iidm:twoWindingsTransformer>
        <iidm:twoWindingsTransformer id="T-2-4-1 " r="0.0" x="3.476125" ratedU1="138.0" ratedU2="25.0" voltageLevelId1="VL2" bus1="B2" connectableBus1="B2" voltageLevelId2="VL4-5" bus2="B4" connectableBus2="B4">
            <iidm:ratioTapChanger tapPosition="0" loadTapChangingCapabilities="false">
                <iidm:step g="-6.1039000000000065" b="-6.1039000000000065" rho="1.0319917440660475"/>
            </iidm:ratioTapChanger>
        </iidm:twoWindingsTransformer>
        <iidm:twoWindingsTransformer id="T-2-5-1 " r="0.0" x="1.575125" ratedU1="138.0" ratedU2="25.0" voltageLevelId1="VL2" bus1="B2" connectableBus1="B2" voltageLevelId2="VL4-5" bus2="B5" connectableBus2="B5">
            <iidm:ratioTapChanger tapPosition="0" loadTapChangingCapabilities="false">
                <iidm:step g="-13.137599999999994" b="-13.137599999999994" rho="1.0729613733905579"/>
            </iidm:ratioTapChanger>
        </iidm:twoWindingsTransformer>
    </iidm:substation>
    <iidm:line id="L-1-2-1 " name="BUS 1_BUS 2_1 " r="3.6907272" x="11.2683348" b1="1.3862633900441084E-4" b2="1.3862633900441084E-4" voltageLevelId1="VL1" bus1="B1" connectableBus1="B1" voltageLevelId2="VL2" bus2="B2" connectableBus2="B2"/>
    <iidm:area id="A1" name="AREA 1      " areaType="ControlArea" interchangeTarget="0.0">
        <iidm:voltageLevelRef id="VL1"/>
        <iidm:voltageLevelRef id="VL2"/>
        <iidm:voltageLevelRef id="VL3"/>
        <iidm:areaBoundary ac="true" type="terminalRef" id="T-2-4-1 " side="ONE"/>
        <iidm:areaBoundary ac="true" type="terminalRef" id="T-2-5-1 " side="ONE"/>
    </iidm:area>
    <iidm:area id="A2" name="AREA 2      " areaType="ControlArea" interchangeTarget="0.0">
        <iidm:voltageLevelRef id="VL4-5"/>
        <iidm:areaBoundary ac="true" type="terminalRef" id="T-2-4-1 " side="TWO"/>
        <iidm:areaBoundary ac="true" type="terminalRef" id="T-2-5-1 " side="TWO"/>
    </iidm:area>
    <iidm:extension id="VL1">
        <slt:slackTerminal id="B1-G1 "/>
    </iidm:extension>
</iidm:network>
